---- qbsp / ericw-tools v0.18.1 ----
Input file: sunkencastle.map
Output file: sunkencastle.bsp

---- LoadMapFile ----
*** WARNING 06: No info_player_deathmatch entities in level
         1942 faces
          318 brushes
            2 entities
            6 unique texnames
          133 texinfo

Opened WAD: D:/Sunken-Castle/wads/prototype_1_2.wad
Processing hull 0...
---- Brush_LoadEntity ----
          318 brushes
          318 planes
---- CSGFaces ----
         1942 brushfaces
         2102 csgfaces
         1873 mergedfaces
---- SolidBSP ----
         2578 split nodes
          975 solid leafs
         1521 empty leafs
           83 water leafs
            0 detail leafs
            0 detail illusionary leafs
            0 detail fence leafs
            0 illusionary visblocker leafs
         5108 leaffaces
         4634 nodefaces
---- Portalize ----
         1604 vis leafs
         1604 vis clusters
         4385 vis portals
---- FillOutside ----
*** WARNING 10: Reached occupant at (224 -192 24), no filling performed.
Leak file written to sunkencastle.pts
---- MakeFaceEdges ----
---- GrowRegions ----
Processing hull 1...
*** WARNING 19: No entities in empty space -- no filling performed (hull 1)
Processing hull 2...
*** WARNING 19: No entities in empty space -- no filling performed (hull 2)
---- WriteBSPFile ----
Wrote sunkencastle.bsp
          654 planes            13080
         5008 vertexes          60096
         2578 nodes             61872
          118 texinfo            4720
         4634 faces             92680
         6224 clipnodes         49792
         1605 leafs             44940
         5108 marksurfaces      10216
        18474 surfedges         73896
        11781 edges             47124
            6 textures          98188
              lightdata             0
              visdata               0
              entdata             137

0.425 seconds elapsed
Peak memory usage: 27167248 (25.9M)
