---- qbsp / ericw-tools v0.18.1 ----
Input file: sunkencastle.map
Output file: sunkencastle.bsp

---- LoadMapFile ----
*** WARNING 06: No info_player_deathmatch entities in level
          328 faces
           48 brushes
            2 entities
            5 unique texnames
          110 texinfo

Opened WAD: D:/Sunken-Castle/wads/prototype_1_2.wad
Processing hull 0...
---- Brush_LoadEntity ----
           48 brushes
          150 planes
---- CSGFaces ----
          328 brushfaces
          449 csgfaces
          483 mergedfaces
---- SolidBSP ----
          503 split nodes
          123 solid leafs
          322 empty leafs
           59 water leafs
            0 detail leafs
            0 detail illusionary leafs
            0 detail fence leafs
            0 illusionary visblocker leafs
         1214 leaffaces
          992 nodefaces
---- Portalize ----
          381 vis leafs
          381 vis clusters
         1129 vis portals
---- FillOutside ----
*** WARNING 10: Reached occupant at (224 -192 40), no filling performed.
Leak file written to sunkencastle.pts
---- MakeFaceEdges ----
---- GrowRegions ----
Processing hull 1...
*** WARNING 19: No entities in empty space -- no filling performed (hull 1)
Processing hull 2...
*** WARNING 19: No entities in empty space -- no filling performed (hull 2)
---- WriteBSPFile ----
Wrote sunkencastle.bsp
          419 planes             8380
         1090 vertexes          13080
          503 nodes             12072
          105 texinfo            4200
          992 faces             19840
         1245 clipnodes          9960
          382 leafs             10696
         1214 marksurfaces       2428
         3952 surfedges         15808
         2574 edges             10296
            5 textures          76384
              lightdata             0
              visdata               0
              entdata             137

0.295 seconds elapsed
Peak memory usage: 5578344 (5.3M)
