---- qbsp / ericw-tools v0.18.1 ----
Input file: sunkencastle.map
Output file: sunkencastle.bsp

---- LoadMapFile ----
*** WARNING 06: No info_player_deathmatch entities in level
         3288 faces
          547 brushes
           83 entities
           37 unique texnames
          358 texinfo

Opened WAD: D:/Sunken-Castle/wads/prototype_1_2.wad
Opened WAD: D:/Sunken-Castle/wads/sunkencastle.wad
Processing hull 0...
---- Brush_LoadEntity ----
          523 brushes
          438 planes
---- CSGFaces ----
         3144 brushfaces
         2973 csgfaces
         2572 mergedfaces
---- SolidBSP ----
         3249 split nodes
         1269 solid leafs
         1872 empty leafs
          109 water leafs
            0 detail leafs
            0 detail illusionary leafs
            0 detail fence leafs
            0 illusionary visblocker leafs
         6371 leaffaces
         5891 nodefaces
---- Portalize ----
         1981 vis leafs
         1981 vis clusters
         5708 vis portals
---- FillOutside ----
*** WARNING 10: Reached occupant at (2368 -3256 8), no filling performed.
Leak file written to sunkencastle.pts
---- MakeFaceEdges ----
---- GrowRegions ----
Processing hull 1...
Processing hull 2...
---- WriteBSPFile ----
Wrote sunkencastle.bsp
          921 planes            18420
         6608 vertexes          79296
         3368 nodes             80832
          305 texinfo           12200
         6006 faces            120120
         2003 clipnodes         16024
         2101 leafs             58828
         6486 marksurfaces      12972
        23912 surfedges         95648
        15379 edges             61516
           45 textures         418484
              lightdata             0
              visdata               0
              entdata            6481

0.612 seconds elapsed
Peak memory usage: 30800408 (29.4M)
