---- qbsp / ericw-tools v0.18.1 ----
Input file: sunkencastle.map
Output file: sunkencastle.bsp

---- LoadMapFile ----
*** WARNING 06: No info_player_deathmatch entities in level
         3724 faces
          619 brushes
          263 entities
           40 unique texnames
          429 texinfo

Opened WAD: D:/Sunken-Castle/wads/prototype_1_2.wad
Opened WAD: D:/Sunken-Castle/wads/sunkencastle.wad
Processing hull 0...
---- Brush_LoadEntity ----
          592 brushes
          503 planes
---- CSGFaces ----
         3560 brushfaces
         3348 csgfaces
         2908 mergedfaces
---- SolidBSP ----
         3894 split nodes
         1506 solid leafs
         2246 empty leafs
          143 water leafs
            0 detail leafs
            0 detail illusionary leafs
            0 detail fence leafs
            0 illusionary visblocker leafs
         7359 leaffaces
         6802 nodefaces
---- Portalize ----
         2389 vis leafs
         2389 vis clusters
         6724 vis portals
---- FillOutside ----
*** WARNING 10: Reached occupant at (2368 -3256 8), no filling performed.
Leak file written to sunkencastle.pts
---- MakeFaceEdges ----
---- GrowRegions ----
Processing hull 1...
*** WARNING 10: Reached occupant at (2424 -3312 64), no filling performed.
Processing hull 2...
*** WARNING 10: Reached occupant at (2424 -3312 64), no filling performed.
*** WARNING 16: Texture __TB_empty not found
---- WriteBSPFile ----
Wrote sunkencastle.bsp
         1071 planes            21420
         7630 vertexes          91560
         4033 nodes             96792
          356 texinfo           14240
         6937 faces            138740
         8050 clipnodes         64400
         2529 leafs             70812
         7494 marksurfaces      14988
        27636 surfedges        110544
        17648 edges             70592
           48 textures         429456
              lightdata             0
              visdata               0
              entdata           17942

0.621 seconds elapsed
Peak memory usage: 37921920 (36.2M)
